/*--------------------------------*- C++ -*----------------------------------*\
| =========                 |                                                 |
| \\      /  F ield         | OpenFOAM: The Open Source CFD Toolbox           |
|  \\    /   O peration     | Version:  4.x                                   |
|   \\  /    A nd           | Web:      www.OpenFOAM.org                      |
|    \\/     M anipulation  |                                                 |
\*---------------------------------------------------------------------------*/
FoamFile
{
    version     2.0;
    format      ascii;
    class       dictionary;
    object      blockMeshDict;
}
// * * * * * * * * * * * * * * * * * * * * * * * * * * * * * * * * * * * * * //

convertToMeters 1;

vertices
(
    (-60 -50 -50)
    (100 -50 -50)
    (100 50 -50)
    (-60  50 -50)
    (-60 -50 50.0)
    (100 -50 50.0)
    (100  50 50.0)
    (-60  50 50.0)
);

blocks
(
    hex (0 1 2 3 4 5 6 7) (60 50 30) simpleGrading (2 1 2)
);

edges
(
);

patches
(
   patch inlet  (  (0 4 7 3)  )
   patch outlet (  (1 2 6 5)  )
   symmetry ground  (  (0 3 2 1)  )
   symmetry sides (  (3 7 6 2) (0 1 5 4) )
   symmetry top   (  (4 5 6 7)  )
);

// ************************************************************************* //
